/home/lolo/Documents/TACsy/Side/ProDock/Data/testcase/Multi/4WKQ/reference_ligand/IRE_tmp.pdb
 OpenBabel04012618293D

 55 58  0  0  0  0  0  0  0  0999 V2000
   -0.9750  195.1570   15.5770 C   0  0  0  0  0  0  0  0  0  0  0  0
    1.7590  196.0520   26.2290 C   0  0  0  0  0  0  0  0  0  0  0  0
    1.8870  195.8460   24.8490 C   0  0  0  0  0  0  0  0  0  0  0  0
   -0.5290  195.5750   24.6740 C   0  0  0  0  0  0  0  0  0  0  0  0
   -0.7220  196.1480   18.2050 C   0  0  0  0  0  0  0  0  0  0  0  0
    0.9010  194.6820   20.0080 C   0  0  0  0  0  0  0  0  0  0  0  0
    3.3620  192.1740   17.4760 C   0  0  0  0  0  0  0  0  0  0  0  0
    2.6930  192.7680   18.7120 C   0  0  0  0  0  0  0  0  0  0  0  0
    7.1360  189.3060   16.4730 C   0  0  0  0  0  0  0  0  0  0  0  0
    4.8720  188.4990   15.8600 C   0  0  0  0  0  0  0  0  0  0  0  0
    4.5160  191.3130   17.9730 C   0  0  0  0  0  0  0  0  0  0  0  0
    6.4230  190.3080   17.4020 C   0  0  0  0  0  0  0  0  0  0  0  0
    4.2000  189.7900   16.2650 C   0  0  0  0  0  0  0  0  0  0  0  0
    0.4740  196.0300   26.8170 C   0  0  0  0  0  0  0  0  0  0  0  0
   -0.6650  195.7800   26.0490 C   0  0  0  0  0  0  0  0  0  0  0  0
    0.7480  195.6220   24.0720 C   0  0  0  0  0  0  0  0  0  0  0  0
    0.0240  195.0600   17.7430 C   0  0  0  0  0  0  0  0  0  0  0  0
    0.9250  195.4410   22.7410 N   0  0  0  0  0  0  0  0  0  0  0  0
    0.0430  194.6190   16.4380 O   0  0  0  0  0  0  0  0  0  0  0  0
    6.2180  188.8730   15.4010 O   0  0  0  0  0  0  0  0  0  0  0  0
    1.5110  193.3120   18.0930 O   0  0  0  0  0  0  0  0  0  0  0  0
    0.8360  194.3500   18.6400 C   0  0  0  0  0  0  0  0  0  0  0  0
    5.1860  190.7890   16.7580 N   0  0  0  0  0  0  0  0  0  0  0  0
   -2.2640  195.7510   26.8020 Cl  0  0  0  0  0  0  0  0  0  0  0  0
   -0.5710  197.1930   22.2210 N   0  0  0  0  0  0  0  0  0  0  0  0
   -1.3620  197.8990   21.3200 C   0  0  0  0  0  0  0  0  0  0  0  0
   -1.4210  197.5180   19.9720 N   0  0  0  0  0  0  0  0  0  0  0  0
   -0.6660  196.4850   19.5630 C   0  0  0  0  0  0  0  0  0  0  0  0
    0.1410  195.7640   20.4760 C   0  0  0  0  0  0  0  0  0  0  0  0
    0.1510  196.1380   21.8470 C   0  0  0  0  0  0  0  0  0  0  0  0
    0.3510  196.2040   28.1400 F   0  0  0  0  0  0  0  0  0  0  0  0
   -0.8643  194.7475   14.5947 H   0  0  0  0  0  0  0  0  0  0  0  0
   -0.8784  196.2217   15.5325 H   0  0  0  0  0  0  0  0  0  0  0  0
   -1.9399  194.9022   15.9630 H   0  0  0  0  0  0  0  0  0  0  0  0
    2.5952  196.2182   26.8106 H   0  0  0  0  0  0  0  0  0  0  0  0
    2.8199  195.8597   24.4080 H   0  0  0  0  0  0  0  0  0  0  0  0
   -1.3637  195.3887   24.0964 H   0  0  0  0  0  0  0  0  0  0  0  0
   -1.3062  196.6956   17.5540 H   0  0  0  0  0  0  0  0  0  0  0  0
    1.4964  194.1394   20.6531 H   0  0  0  0  0  0  0  0  0  0  0  0
    3.7304  192.9555   16.8448 H   0  0  0  0  0  0  0  0  0  0  0  0
    2.6679  191.5940   16.9044 H   0  0  0  0  0  0  0  0  0  0  0  0
    3.2935  193.5283   19.1663 H   0  0  0  0  0  0  0  0  0  0  0  0
    2.5167  192.0811   19.5133 H   0  0  0  0  0  0  0  0  0  0  0  0
    7.9938  189.7745   16.0376 H   0  0  0  0  0  0  0  0  0  0  0  0
    7.4397  188.4526   17.0425 H   0  0  0  0  0  0  0  0  0  0  0  0
    4.3266  188.0275   15.0693 H   0  0  0  0  0  0  0  0  0  0  0  0
    4.9127  187.8049   16.6733 H   0  0  0  0  0  0  0  0  0  0  0  0
    4.1474  190.5064   18.5717 H   0  0  0  0  0  0  0  0  0  0  0  0
    5.1919  191.8761   18.5820 H   0  0  0  0  0  0  0  0  0  0  0  0
    7.0703  191.1382   17.5936 H   0  0  0  0  0  0  0  0  0  0  0  0
    6.1775  189.8238   18.3240 H   0  0  0  0  0  0  0  0  0  0  0  0
    3.4945  189.5851   17.0430 H   0  0  0  0  0  0  0  0  0  0  0  0
    3.7120  190.1977   15.4045 H   0  0  0  0  0  0  0  0  0  0  0  0
    1.6076  194.8106   22.4156 H   0  0  0  0  0  0  0  0  0  0  0  0
   -1.9100  198.7101   21.6468 H   0  0  0  0  0  0  0  0  0  0  0  0
  1 19  1  0  0  0  0
  1 32  1  0  0  0  0
  1 33  1  0  0  0  0
  1 34  1  0  0  0  0
  2  3  2  0  0  0  0
  2 14  1  0  0  0  0
  2 35  1  0  0  0  0
  3 16  1  0  0  0  0
  3 36  1  0  0  0  0
  4 15  1  0  0  0  0
  4 16  2  0  0  0  0
  4 37  1  0  0  0  0
  5 28  2  0  0  0  0
  5 17  1  0  0  0  0
  5 38  1  0  0  0  0
  6 29  2  0  0  0  0
  6 22  1  0  0  0  0
  6 39  1  0  0  0  0
  7  8  1  0  0  0  0
  7 11  1  0  0  0  0
  7 40  1  0  0  0  0
  7 41  1  0  0  0  0
  8 21  1  0  0  0  0
  8 42  1  0  0  0  0
  8 43  1  0  0  0  0
  9 20  1  0  0  0  0
  9 12  1  0  0  0  0
  9 44  1  0  0  0  0
  9 45  1  0  0  0  0
 10 13  1  0  0  0  0
 10 20  1  0  0  0  0
 10 46  1  0  0  0  0
 10 47  1  0  0  0  0
 11 23  1  0  0  0  0
 11 48  1  0  0  0  0
 11 49  1  0  0  0  0
 12 23  1  0  0  0  0
 12 50  1  0  0  0  0
 12 51  1  0  0  0  0
 13 23  1  0  0  0  0
 13 52  1  0  0  0  0
 13 53  1  0  0  0  0
 14 31  1  0  0  0  0
 14 15  2  0  0  0  0
 15 24  1  0  0  0  0
 16 18  1  0  0  0  0
 17 19  1  0  0  0  0
 17 22  2  0  0  0  0
 18 30  1  0  0  0  0
 18 54  1  0  0  0  0
 21 22  1  0  0  0  0
 25 30  2  0  0  0  0
 25 26  1  0  0  0  0
 26 27  2  0  0  0  0
 26 55  1  0  0  0  0
 27 28  1  0  0  0  0
 28 29  1  0  0  0  0
 29 30  1  0  0  0  0
M  END
$$$$
